units lj                  # Use reduced LJ style units
atom_style atomic         # Uncharged point particles
atom_modify map hash      # Needed for indexing of clusters etc
                          # Used to be able to find where atoms are in relation to each other.

lattice fcc 1.0 spacing 1 1 1
Lattice spacing in x,y,z = 1.5874011 1.5874011 1.5874011
region box block 0 6 0 6 0 6 units lattice
create_box 2 box
Created orthogonal box = (0.0000000 0.0000000 0.0000000) to (9.5244063 9.5244063 9.5244063)
create_atoms 1 box
Created 864 atoms
set type 1 type/fraction 2 0.2 78393
Setting atom values ...
  181 settings made for type/fraction
mass 1 1.0
mass 2 1.0
pair_style lj/cut  3.5
pair_modify tail  yes
pair_coeff 1  1  1.0  1.0   # Intearaction between 1 and 1 set with epsilon = 1 and sigma = 1
pair_coeff 1  2  1.5  0.8
pair_coeff 2  2  0.5  0.88

write_data data.0
System init for write_data ...
  update every 1 steps, delay 10 steps, check yes

#############################
#   M E L T   S Y S T E M   #
#############################

velocity all create 2.4 4344764 mom yes dist gaussian # Assign velocities
                                                    # Temperature 2.4, random number seed, zero linear momentum
                                                                                # Gaussian distribution

timestep 0.002   # simulation timestep
thermo 100       # output thermodynamic data every 100 steps

# Define a fix  in this case with index 1 applied to all
# particles in the simulation. This fix is for simulations
# in the anisotropic NPT ensemble. Note that we use the MTK
# correction.
fix 1 all npt temp 2.4 2.4 0.1 iso 5.68 5.68 0.5 mtk yes tchain 5 pchain 5 # Use NPT ensemble
                                                                         # Set temperature and pressure and damping
                                                                         # Numbers of thermostats in chain and in barostat
run 10000          # run for 10000 steps
Step Temp E_pair E_mol TotEng Press Volume
0          2.4   -7.0327211            0   -3.4368878   -3.5977146          864
Averages over the last 51 of 101 rows, steps 5000 to 10000:
Temp E_pair E_mol TotEng Press Volume
2.40335 -4.83278 0 -1.23193 5.7134 965.442
Loop time of 1.70191 on 12 procs for 10000 steps with 864 atoms

# Equilibrate just above the melting temperature to avoid step fn in T

fix 1 all npt temp 1.25 1.25 0.1 iso 5.68 5.68 0.5 mtk yes tchain 5 pchain 5
run 2000
Step Temp E_pair E_mol TotEng Press Volume
10000     2.480797   -4.8545006            0    -1.137612    6.7054856    943.67449
Averages over the last 11 of 21 rows, steps 11000 to 12000:
Temp E_pair E_mol TotEng Press Volume
1.24625 -6.56691 0 -4.6997 5.70742 786.042
Loop time of 0.371511 on 12 procs for 2000 steps with 864 atoms

#############################
# L I N E A R  Q U E N C H  #
#############################

# Define solid atoms. This closely follows ten Wolde  Ruiz-Montero and Frenkel  Faraday Discuss  1996  104  93-110
# Compute components of the per-atom q6 vector
compute q6 all orientorder/atom degrees 1 6 components 6 nnn NULL cutoff 1.3 # compute the Q6 parameter.
                                                                             # Use all neighbours within 1.3 unit cell.

# get number of connections
compute coord_number all coord/atom orientorder q6 0.5

# An atom is solid if it has 8 or more connections (of a possible 14)
variable is_solid atom c_coord_number>=8
group solid dynamic all var is_solid    # Must be dynamic to update
dynamic group solid defined

# do clustering
compute cluster solid cluster/atom 1.3 # Create a cluster where all atoms within are solid and max 1.3 units from another member

# define chunks one chunk per cluster
compute clus_chunks solid chunk/atom c_cluster nchunk every compress yes  # Says which atoms are in which chunk

# count the size of each chunk
compute size_chunks solid property/chunk clus_chunks count

# Find the maximum entry in the vector of chunk sizes
variable max_n equal max(c_size_chunks)

# Thermo style which includes this variable
# thermo_style custom step temp pe vol v_max_n

thermo 1000

# Reset the npt fix at a lower temperature (below freezing)
fix 1  all npt temp  0.6 0.6  0.1  iso  5.68  5.68  0.5  mtk yes tchain  5  pchain  5

dump dmp2 all dcd 1000 traj.dcd

compute msd all msd com yes
variable twopoint equal c_msd[4]/6/(step*dt+1.0e-6)
fix 9 all vector 10 c_msd[4]
variable fit equal slope(f_9)/6/(10*dt)
thermo_style custom step temp pe c_msd[4] v_twopoint v_fit v_max_n

fix 1 all npt temp 1.25 0.6 0.1 iso 5.68 5.68 0.5 mtk yes tchain 5 pchain 5
run 100000 # 5000000  # Run for this many steps
  update every 1 steps, delay 10 steps, check yes
Step Temp PotEng c_msd[4] v_twopoint v_fit v_max_n
12000    1.2467221   -6.5590263 8.3451258e-31 5.795226e-33 8.3333333e+20            1
Averages over the last 51 of 101 rows, steps 62000 to 112000:
Temp PotEng c_msd[4] v_twopoint v_fit v_max_n
0.764421 -7.57363 17.6357 0.0172267 0.0194408 -3.92157e+18
Loop time of 187.096 on 12 procs for 100000 steps with 864 atoms

#clear
#
#next RN
#
#jump SELF
